/*--------------------------------*- C++ -*----------------------------------*\
| =========                 |                                                 |
| \\      /  F ield         | OpenFOAM: The Open Source CFD Toolbox           |
|  \\    /   O peration     | Version:  2.3.0                                 |
|   \\  /    A nd           | Web:      www.OpenFOAM.org                      |
|    \\/     M anipulation  |                                                 |
\*---------------------------------------------------------------------------*/
FoamFile
{
    version     2.0;
    format      ascii;
    class       dictionary;
    object      blockMeshDict;
}
// * * * * * * * * * * * * * * * * * * * * * * * * * * * * * * * * * * * * * //

convertToMeters 1;

vertices
(
    (0 0 0)              //0
    (40 0 0)             //1
    (0 0.2 0)            //2
    (40 0.2 0)           //3
    (0 0.2003 0)         //4
    (40 0.2003 0)        //5
    (0 0.2006 0)         //6
    (40 0.2006 0)        //7
    (0 250.2006 0)       //8
    (40 250.2006 0)      //9
    (0 500.2006 0)       //10
    (40 500.2006 0)      //11
    (0 500.2009 0)       //12
    (40 500.2009 0)      //13
    (0 500.2012 0)       //14
    (40 500.2012 0)      //15
    (0 500.7012 0)       //16
    (40 500.7012 0)      //17
    
    (0 0 0.1)              //0
    (40 0 0.1)             //1
    (0 0.2 0.1)            //2
    (40 0.2 0.1)           //3
    (0 0.2003 0.1)         //4
    (40 0.2003 0.1)        //5
    (0 0.2006 0.1)         //6
    (40 0.2006 0.1)        //7
    (0 250.2006 0.1)       //8
    (40 250.2006 0.1)      //9
    (0 500.2006 0.1)       //10
    (40 500.2006 0.1)      //11
    (0 500.2009 0.1)       //12
    (40 500.2009 0.1)      //13
    (0 500.2012 0.1)       //14
    (40 500.2012 0.1)      //15
    (0 500.7012 0.1)       //16
    (40 500.7012 0.1)      //17
);

blocks
(
    hex (0 1 3 2 18 19 21 20) (1 2000 1) simpleGrading (1 0.002 1)  // Pt
    hex (2 3 5 4 20 21 23 22) (1 100 1) simpleGrading (1 1 1)  // Pt interface
    hex (4 5 7 6 22 23 25 24) (1 100 1) simpleGrading (1 1 1)  // BZY interface
    hex (6 7 9 8 24 25 27 26) (1 10000 1) simpleGrading (1 200000 1)  // BZY 1
    hex (8 9 11 10 26 27 29 28) (1 10000 1) simpleGrading (1 0.000005 1)  // BZY 2
    hex (10 11 13 12 28 29 31 30) (1 100 1) simpleGrading (1 1 1)  // BZY interface
    hex (12 13 15 14 30 31 33 32) (1 100 1) simpleGrading (1 1 1)  // Ag interface
    hex (14 15 17 16 32 33 35 34) (1 2000 1) simpleGrading (1 500 1)  // Ag
);

edges
(
);

boundary
(
    upface
    {
        type patch;
        faces
        (
            (16 17 35 34)
        );
    }

    downface
    {
	type patch;
	faces
	(
	    (0 1 19 18)
	);
    }

    fixedWalls
    {
        type wall;
        faces
        (
	    (0 2 20 18)
            (2 4 22 20)
            (4 6 24 22)
            (6 8 26 24)
            (8 10 28 26)
	    (10 12 30 28)
            (12 14 32 30)
            (14 16 34 32)

	    (1 3 21 19)
            (3 5 23 21)
            (5 7 25 23)
            (7 9 27 25)
            (9 11 29 27)
	    (11 13 31 29)
            (13 15 33 31)
            (15 17 35 33)
        );
    }
    frontAndBack
    {
        type empty;
        faces
        (
	    (0 1 3 2)
            (2 3 5 4)
            (4 5 7 6)
            (6 7 9 8)
            (8 9 11 10)
	    (10 11 13 12)
            (12 13 15 14)
            (14 15 17 16)

            (18 19 21 20)
            (20 21 23 22)
	    (22 23 25 24)
            (24 25 27 26)
            (26 27 29 28)
            (28 29 31 30)
            (30 31 33 32)
	    (32 33 35 34)
        );
    }
);

mergePatchPairs
(
);

// ************************************************************************* //
