/*--------------------------------*- C++ -*----------------------------------*\
| =========                 |                                                 |
| \\      /  F ield         | OpenFOAM: The Open Source CFD Toolbox           |
|  \\    /   O peration     | Version:  2.3.0                                 |
|   \\  /    A nd           | Web:      www.OpenFOAM.org                      |
|    \\/     M anipulation  |                                                 |
\*---------------------------------------------------------------------------*/
FoamFile
{
    version     2.0;
    format      ascii;
    class       dictionary;
    object      blockMeshDict;
}
// * * * * * * * * * * * * * * * * * * * * * * * * * * * * * * * * * * * * * //

convertToMeters 1;

vertices
(
    (0 0 0)              //0
    (40 0 0)             //1
    (0 0.2 0)            //2
    (40 0.2 0)           //3
    (0 0.2003 0)       //4
    (40 0.2003 0)      //5
    (0 0.2006 0)     //6
    (40 0.2006 0)    //7
    (0 0.2009 0)      //8
    (40 0.2009 0)     //9
    (0 250.2009 0)    //10
    (40 250.2009 0)   //11
    (0 500.2009 0)    //12
    (40 500.2009 0)   //13
    (0 500.2012 0)    //14
    (40 500.2012 0)   //15
    (0 500.2015 0)    //16
    (40 500.2015 0)   //17
    (0 500.2018 0)    //18
    (40 500.2018 0)   //19
    (0 500.7018 0)    //20
    (40 500.7018 0)   //21
    
    (0 0 0.1)              //22
    (40 0 0.1)             //23
    (0 0.2 0.1)            //24
    (40 0.2 0.1)           //25
    (0 0.2003 0.1)       //26
    (40 0.2003 0.1)      //27
    (0 0.2006 0.1)     //28
    (40 0.2006 0.1)    //29
    (0 0.2009 0.1)      //30
    (40 0.2009 0.1)     //31
    (0 250.2009 0.1)    //32
    (40 250.2009 0.1)   //33
    (0 500.2009 0.1)    //34
    (40 500.2009 0.1)   //35
    (0 500.2012 0.1)    //36
    (40 500.2012 0.1)   //37
    (0 500.2015 0.1)    //38
    (40 500.2015 0.1)   //39
    (0 500.2018 0.1)    //40
    (40 500.2018 0.1)   //41
    (0 500.7018 0.1)    //42
    (40 500.7018 0.1)   //43
);

blocks
(
    hex (0 1 3 2 22 23 25 24) (1 2000 1) simpleGrading (1 0.002 1)  // Pt
    hex (2 3 5 4 24 25 27 26) (1 100 1) simpleGrading (1 1 1)  // Pt surface
    hex (4 5 7 6 26 27 29 28) (1 100 1) simpleGrading (1 1 1)  // Pt TPB
    hex (6 7 9 8 28 29 31 30) (1 100 1) simpleGrading (1 1 1)  // BZY surface
    hex (8 9 11 10 30 31 33 32) (1 10000 1) simpleGrading (1 200000 1)  // BZY 1
    hex (10 11 13 12 32 33 35 34) (1 10000 1) simpleGrading (1 0.000005 1)  // BZY 2
    hex (12 13 15 14 34 35 37 36) (1 100 1) simpleGrading (1 1 1)  // BZY surface
    hex (14 15 17 16 36 37 39 38) (1 100 1) simpleGrading (1 1 1)  // Ag TPB
    hex (16 17 19 18 38 39 41 40) (1 100 1) simpleGrading (1 1 1)  // Ag surface
    hex (18 19 21 20 40 41 43 42) (1 2000 1) simpleGrading (1 500 1)  // Ag
);

edges
(
);

boundary
(
    upface
    {
        type patch;
        faces
        (
            (20 21 43 42)
        );
    }

    downface
    {
	type patch;
	faces
	(
	    (0 1 23 22)
	);
    }

    fixedWalls
    {
        type wall;
        faces
        (
	    (0 2 24 22)
            (2 4 26 24)
            (4 6 28 26)
            (6 8 30 28)
            (8 10 32 30)
	    (10 12 34 32)
            (12 14 36 34)
            (14 16 38 36)
            (16 18 40 38)
            (18 20 42 40)

	    (1 3 25 23)
            (3 5 27 25)
            (5 7 29 27)
            (7 9 31 29)
            (9 11 33 31)
	    (11 13 35 33)
            (13 15 37 35)
            (15 17 39 37)
            (17 19 41 39)
            (19 21 43 41)
        );
    }
    frontAndBack
    {
        type empty;
        faces
        (
	    (0 1 3 2)
            (2 3 5 4)
            (4 5 7 6)
            (6 7 9 8)
            (8 9 11 10)
	    (10 11 13 12)
            (12 13 15 14)
            (14 15 17 16)
            (16 17 19 18)
            (18 19 21 20)

	    (22 23 25 24)
            (24 25 27 26)
            (26 27 29 28)
            (28 29 31 30)
            (30 31 33 32)
	    (32 33 35 34)
            (34 35 37 36)
            (36 37 39 38)
            (38 39 41 40)
            (40 41 43 42)
        );
    }
);

mergePatchPairs
(
);

// ************************************************************************* //
