/*--------------------------------*- C++ -*----------------------------------*\
| =========                 |                                                 |
| \\      /  F ield         | OpenFOAM: The Open Source CFD Toolbox           |
|  \\    /   O peration     | Version:  2.4.0                                 |
|   \\  /    A nd           | Web:      www.OpenFOAM.org                      |
|    \\/     M anipulation  |                                                 |
\*---------------------------------------------------------------------------*/
FoamFile
{
    version     2.0;
    format      ascii;
    class       polyBoundaryMesh;
    location    "constant/overall/polyMesh";
    object      boundary;
}
// * * * * * * * * * * * * * * * * * * * * * * * * * * * * * * * * * * * * * //

4
(
    upface
    {
        type            patch;
        nFaces          1;
        startFace       24599;
    }
    downface
    {
        type            patch;
        nFaces          1;
        startFace       24600;
    }
    fixedWalls
    {
        type            wall;
        inGroups        1(wall);
        nFaces          49200;
        startFace       24601;
    }
    frontAndBack
    {
        type            empty;
        inGroups        1(empty);
        nFaces          49200;
        startFace       73801;
    }
)

// ************************************************************************* //
