/*--------------------------------*- C++ -*----------------------------------*\
| =========                 |                                                 |
| \\      /  F ield         | OpenFOAM: The Open Source CFD Toolbox           |
|  \\    /   O peration     | Version:  2.4.0                                 |
|   \\  /    A nd           | Web:      www.OpenFOAM.org                      |
|    \\/     M anipulation  |                                                 |
\*---------------------------------------------------------------------------*/
FoamFile
{
    version     2.0;
    format      ascii;
    class       polyBoundaryMesh;
    location    "constant/electrolyte/polyMesh";
    object      boundary;
}
// * * * * * * * * * * * * * * * * * * * * * * * * * * * * * * * * * * * * * //

4
(
    upface
    {
        type            patch;
        nFaces          1;
        startFace       20199;
    }
    downface
    {
        type            patch;
        nFaces          1;
        startFace       20200;
    }
    fixedWalls
    {
        type            wall;
        inGroups        1(wall);
        nFaces          40400;
        startFace       20201;
    }
    frontAndBack
    {
        type            empty;
        inGroups        1(empty);
        nFaces          40400;
        startFace       60601;
    }
)

// ************************************************************************* //
