/*--------------------------------*- C++ -*----------------------------------*\
| =========                 |                                                 |
| \\      /  F ield         | OpenFOAM: The Open Source CFD Toolbox           |
|  \\    /   O peration     | Version:  2.3.0                                 |
|   \\  /    A nd           | Web:      www.OpenFOAM.org                      |
|    \\/     M anipulation  |                                                 |
\*---------------------------------------------------------------------------*/
FoamFile
{
    version     2.0;
    format      ascii;
    class       dictionary;
    location    "constant";
    object      transportProperties;
}
// * * * * * * * * * * * * * * * * * * * * * * * * * * * * * * * * * * * * * //

D_H_C                D_H_C    [0 2 -1 0 0 0 0] 3.739e-2;
D_O2                 D_O2     [0 2 -1 0 0 0 0] 1.0892e1;
D_O2ads              D_O2ads  [0 2 -1 0 0 0 0] 1.7493e-1; 
D_O                  D_O      [0 2 -1 0 0 0 0] 2.814e-3;
D_OH                 D_OH     [0 2 -1 0 0 0 0] 1.4747e-2;
D_H2Oad              D_H2Oad  [0 2 -1 0 0 0 0] 1.749e-1;
D_H2O                D_H2O    [0 2 -1 0 0 0 0] 1.4523e1;
perm_r_C	     perm_r_C   [0 0 0 0 0 0 0]  50;
D_e_C                D_e_C    [0 2 -1 0 0 0 0]  1000;
// ************************************************************************* //
