/*--------------------------------*- C++ -*----------------------------------*\
| =========                 |                                                 |
| \\      /  F ield         | OpenFOAM: The Open Source CFD Toolbox           |
|  \\    /   O peration     | Version:  2.3.0                                 |
|   \\  /    A nd           | Web:      www.OpenFOAM.org                      |
|    \\/     M anipulation  |                                                 |
\*---------------------------------------------------------------------------*/
FoamFile
{
    version     2.0;
    format      ascii;
    class       dictionary;
    object      blockMeshDict;
}
// * * * * * * * * * * * * * * * * * * * * * * * * * * * * * * * * * * * * * //

convertToMeters 1;

vertices
(
    (0 500.2015 0)       //0
    (40 500.2015 0)      //1
    (0 500.2018 0)       //2
    (40 500.2018 0)      //3
    (0 500.7018 0)       //4
    (40 500.7018 0)      //5
    
    (0 500.2015 0.1)       //6
    (40 500.2015 0.1)      //7
    (0 500.2018 0.1)       //8
    (40 500.2018 0.1)      //9
    (0 500.7018 0.1)       //10
    (40 500.7018 0.1)      //11
);

blocks
(
    hex (0 1 3 2 6 7 9 8) (1 100 1) simpleGrading (1 1 1)  // Ag interface
    hex (2 3 5 4 8 9 11 10) (1 2000 1) simpleGrading (1 500 1)  // Ag
);

edges
(
);

boundary
(
    upface
    {
        type patch;
        faces
        (
            (4 5 11 10)
        );
    }

    downface
    {
	type patch;
	faces
	(
	    (0 1 7 6)
	);
    }

    fixedWalls
    {
        type wall;
        faces
        (
	    (0 2 8 6)
            (2 4 10 8)
	    (1 3 9 7)
	    (3 5 11 9)
        );
    }
    frontAndBack
    {
        type empty;
        faces
        (
	    (0 1 3 2)
            (2 3 5 4)
	    (6 7 9 8)
	    (8 9 11 10)
        );
    }
);

mergePatchPairs
(
);

// ************************************************************************* //
