/*--------------------------------*- C++ -*----------------------------------*\
| =========                 |                                                 |
| \\      /  F ield         | OpenFOAM: The Open Source CFD Toolbox           |
|  \\    /   O peration     | Version:  2.3.0                                 |
|   \\  /    A nd           | Web:      www.OpenFOAM.org                      |
|    \\/     M anipulation  |                                                 |
\*---------------------------------------------------------------------------*/
FoamFile
{
    version     2.0;
    format      ascii;
    class       dictionary;
    location    "system";
    object      controlDict;
}
// * * * * * * * * * * * * * * * * * * * * * * * * * * * * * * * * * * * * * //

application     channelFoam;

startFrom       startTime;

startTime       0;//540000;//52000;//2154000;

stopAt          endTime;

endTime         5000000000000000000000000000;

deltaT          3e-2;

writeControl    timeStep;

writeInterval   5000;

purgeWrite      0;

writeFormat     ascii;

writePrecision  10;

writeCompression off;

timeFormat      general;

timePrecision   6;

runTimeModifiable true;

libs (
    "libOpenFOAM.so"
    "libgroovyBC.so"
    "libsimpleSwakFunctionObjects.so"
    "libswakFunctionObjects.so"
);
// ************************************************************************* //
