/*--------------------------------*- C++ -*----------------------------------*\
| =========                 |                                                 |
| \\      /  F ield         | OpenFOAM: The Open Source CFD Toolbox           |
|  \\    /   O peration     | Version:  2.3.0                                 |
|   \\  /    A nd           | Web:      www.OpenFOAM.org                      |
|    \\/     M anipulation  |                                                 |
\*---------------------------------------------------------------------------*/
FoamFile
{
    version     2.0;
    format      ascii;
    class       volScalarField;
    object      Phi_lc;
}
// * * * * * * * * * * * * * * * * * * * * * * * * * * * * * * * * * * * * * //

dimensions      [0 0 0 0 0 0 0];

internalField   uniform   0.317;   

boundaryField
{
    upface
    {
        type            fixedValue;
	value           uniform 0.317;
    }

    downface
    {
	type groovyBC;
	variables "r_R7T=Area_C*(k7CT_plus*C_H2Oad/Cmax_C - k7CT_minus*C_H2O/Cmax_C);";
	//gradientExpression "0";
	gradientExpression "(r_R7T)/D_H2O";
	fractionExpression "0";
	value uniform 0; 
    }

    fixedWalls
    {
        type            zeroGradient;
    }

    frontAndBack
    {
        type            empty;
    }
}

// ************************************************************************* //
