/*--------------------------------*- C++ -*----------------------------------*\
| =========                 |                                                 |
| \\      /  F ield         | OpenFOAM: The Open Source CFD Toolbox           |
|  \\    /   O peration     | Version:  2.3.0                                 |
|   \\  /    A nd           | Web:      www.OpenFOAM.org                      |
|    \\/     M anipulation  |                                                 |
\*---------------------------------------------------------------------------*/
FoamFile
{
    version     2.0;
    format      ascii;
    class       volScalarField;
    object      Phi_lc;
}
// * * * * * * * * * * * * * * * * * * * * * * * * * * * * * * * * * * * * * //

dimensions      [0 0 0 0 0 0 0]; 

internalField   uniform   3.04633;   

boundaryField
{
    upface
    {
        type            fixedValue;
	value           uniform 3.04633;
    }

    downface
    {
	type groovyBC;
	variables "r_R5T=Area_C*(k5CT_plus*C_O2/Cmax_C - k5CT_minus*C_O2ads/Cmax_C);";
	//gradientExpression "0";
	gradientExpression "-r_R5T/D_O2";
	fractionExpression "0";
	value uniform 0; 
    }

    fixedWalls
    {
        type            zeroGradient;
    }

    frontAndBack
    {
        type            empty;
    }
}

// ************************************************************************* //
